Input Parameters:
   integrator                     = md
   tinit                          = 0
   dt                             = 0.002
   nsteps                         = 20000
   init-step                      = 0
   simulation-part                = 1
   comm-mode                      = Linear
   nstcomm                        = 100
   bd-fric                        = 0
   ld-seed                        = 753480138
   emtol                          = 10
   emstep                         = 0.01
   niter                          = 20
   fcstep                         = 0
   nstcgsteep                     = 1000
   nbfgscorr                      = 10
   rtpi                           = 0.05
   nstxout                        = 10000
   nstvout                        = 10000
   nstfout                        = 0
   nstlog                         = 2000
   nstcalcenergy                  = 100
   nstenergy                      = 2000
   nstxout-compressed             = 0
   compressed-x-precision         = 1000
   cutoff-scheme                  = Verlet
   nstlist                        = 40
   ns-type                        = Grid
   pbc                            = xyz
   periodic-molecules             = false
   verlet-buffer-tolerance        = 0.005
   rlist                          = 1.191
   coulombtype                    = PME
   coulomb-modifier               = Potential-shift
   rcoulomb-switch                = 0
   rcoulomb                       = 1.1
   epsilon-r                      = 1
   epsilon-rf                     = inf
   vdw-type                       = Cut-off
   vdw-modifier                   = Potential-shift
   rvdw-switch                    = 0
   rvdw                           = 1.1
   DispCorr                       = EnerPres
   table-extension                = 1
   fourierspacing                 = 0.16
   fourier-nx                     = 25
   fourier-ny                     = 25
   fourier-nz                     = 25
   pme-order                      = 4
   ewald-rtol                     = 1e-05
   ewald-rtol-lj                  = 0.001
   lj-pme-comb-rule               = Geometric
   ewald-geometry                 = 0
   epsilon-surface                = 0
   implicit-solvent               = No
   gb-algorithm                   = Still
   nstgbradii                     = 1
   rgbradii                       = 1
   gb-epsilon-solvent             = 80
   gb-saltconc                    = 0
   gb-obc-alpha                   = 1
   gb-obc-beta                    = 0.8
   gb-obc-gamma                   = 4.85
   gb-dielectric-offset           = 0.009
   sa-algorithm                   = Ace-approximation
   sa-surface-tension             = 2.05016
   tcoupl                         = V-rescale
   nsttcouple                     = 10
   nh-chain-length                = 0
   print-nose-hoover-chain-variables = false
   pcoupl                         = Berendsen
   pcoupltype                     = Isotropic
   nstpcouple                     = 10
   tau-p                          = 0.5
   compressibility (3x3):
      compressibility[    0]={ 4.50000e-05,  0.00000e+00,  0.00000e+00}
      compressibility[    1]={ 0.00000e+00,  4.50000e-05,  0.00000e+00}
      compressibility[    2]={ 0.00000e+00,  0.00000e+00,  4.50000e-05}
   ref-p (3x3):
      ref-p[    0]={ 9.86923e-01,  0.00000e+00,  0.00000e+00}
      ref-p[    1]={ 0.00000e+00,  9.86923e-01,  0.00000e+00}
      ref-p[    2]={ 0.00000e+00,  0.00000e+00,  9.86923e-01}
   refcoord-scaling               = No
   posres-com (3):
      posres-com[0]= 0.00000e+00
      posres-com[1]= 0.00000e+00
      posres-com[2]= 0.00000e+00
   posres-comB (3):
      posres-comB[0]= 0.00000e+00
      posres-comB[1]= 0.00000e+00
      posres-comB[2]= 0.00000e+00
   QMMM                           = false
   QMconstraints                  = 0
   QMMMscheme                     = 0
   MMChargeScaleFactor            = 1
qm-opts:
   ngQM                           = 0
   constraint-algorithm           = Lincs
   continuation                   = false
   Shake-SOR                      = false
   shake-tol                      = 0.0001
   lincs-order                    = 4
   lincs-iter                     = 2
   lincs-warnangle                = 30
   nwall                          = 0
   wall-type                      = 9-3
   wall-r-linpot                  = -1
   wall-atomtype[0]               = -1
   wall-atomtype[1]               = -1
   wall-density[0]                = 0
   wall-density[1]                = 0
   wall-ewald-zfac                = 3
   pull                           = false
   rotation                       = false
   interactiveMD                  = false
   disre                          = No
   disre-weighting                = Conservative
   disre-mixed                    = false
   dr-fc                          = 1000
   dr-tau                         = 0
   nstdisreout                    = 100
   orire-fc                       = 0
   orire-tau                      = 0
   nstorireout                    = 100
   free-energy                    = no
   cos-acceleration               = 0
   deform (3x3):
      deform[    0]={ 0.00000e+00,  0.00000e+00,  0.00000e+00}
      deform[    1]={ 0.00000e+00,  0.00000e+00,  0.00000e+00}
      deform[    2]={ 0.00000e+00,  0.00000e+00,  0.00000e+00}
   simulated-tempering            = false
   E-x:
      n = 0
   E-xt:
      n = 0
   E-y:
      n = 0
   E-yt:
      n = 0
   E-z:
      n = 0
   E-zt:
      n = 0
   swapcoords                     = no
   userint1                       = 0
   userint2                       = 0
   userint3                       = 0
   userint4                       = 0
   userreal1                      = 0
   userreal2                      = 0
   userreal3                      = 0
   userreal4                      = 0
grpopts:
   nrdf:       12999
   ref-t:      298.15
   tau-t:         0.1
annealing:          No
annealing-npoints:           0
   acc:	           0           0           0
   nfreeze:           N           N           N
   energygrp-flags[  0]: 0

Initializing Domain Decomposition on 2 ranks
Dynamic load balancing: auto
Initial maximum inter charge-group distances:
    two-body bonded interactions: 0.382 nm, LJ-14, atoms 9 19
  multi-body bonded interactions: 0.382 nm, Proper Dih., atoms 9 19
Minimum cell size due to bonded interactions: 0.420 nm
Maximum distance for 5 constraints, at 120 deg. angles, all-trans: 0.218 nm
Estimated maximum distance required for P-LINCS: 0.218 nm
Using 0 separate PME ranks, per user request
Scaling the initial minimum size with 1/0.8 (option -dds) = 1.25
Optimizing the DD grid for 2 cells with a minimum initial size of 0.525 nm
The maximum allowed number of cells is: X 7 Y 7 Z 7
Domain decomposition grid 2 x 1 x 1, separate PME ranks 0
PME domain decomposition: 2 x 1 x 1
Domain decomposition rank 0, coordinates 0 0 0

The initial number of communication pulses is: X 1
The initial domain decomposition cell size is: X 2.00 nm

The maximum allowed distance for charge groups involved in interactions is:
                 non-bonded interactions           1.191 nm
(the following are initial values, they could change due to box deformation)
            two-body bonded interactions  (-rdd)   1.191 nm
          multi-body bonded interactions  (-rdd)   1.191 nm
  atoms separated by up to 5 constraints  (-rcon)  2.000 nm

When dynamic load balancing gets turned on, these settings will change to:
The maximum number of communication pulses is: X 1
The minimum size for domain decomposition cells is 1.191 nm
The requested allowed shrink of DD cells (option -dds) is: 0.80
The allowed shrink of domain decomposition cells is: X 0.60
The maximum allowed distance for charge groups involved in interactions is:
                 non-bonded interactions           1.191 nm
            two-body bonded interactions  (-rdd)   1.191 nm
          multi-body bonded interactions  (-rdd)   1.191 nm
  atoms separated by up to 5 constraints  (-rcon)  1.191 nm

Using 2 MPI threads
Using 2 OpenMP threads per tMPI thread

2 compatible GPUs are present, with IDs 0,1
2 GPUs auto-selected for this run.
Mapping of GPU IDs to the 2 PP ranks in this node: 0,1

Will do PME sum in reciprocal space for electrostatic interactions.

Will do ordinary reciprocal space Ewald sum.
Using a Gaussian width (1/beta) of 0.352179 nm for Ewald
Cut-off's:   NS: 1.191   Coulomb: 1.1   LJ: 1.1
Long Range LJ corr.: <C6> 2.7791e-04
System total charge: -0.000
Generated table with 1095 data points for Ewald.
Tabscale = 500 points/nm
Generated table with 1095 data points for LJ6.
Tabscale = 500 points/nm
Generated table with 1095 data points for LJ12.
Tabscale = 500 points/nm
Generated table with 1095 data points for 1-4 COUL.
Tabscale = 500 points/nm
Generated table with 1095 data points for 1-4 LJ6.
Tabscale = 500 points/nm
Generated table with 1095 data points for 1-4 LJ12.
Tabscale = 500 points/nm
Potential shift: LJ r^-12: -3.186e-01 r^-6: -5.645e-01, Ewald -1.000e-05
Initialized non-bonded Ewald correction tables, spacing: 9.79e-04 size: 1126

Using GPU 8x8 non-bonded kernels

Using Lorentz-Berthelot Lennard-Jones combination rule

Removing pbc first time
Pinning threads with an auto-selected logical core stride of 1

Initializing Parallel LINear Constraint Solver

The number of constraints is 12
There are inter charge-group constraints,
will communicate selected coordinates each lincs iteration

Linking all bonded interactions to atoms

Intra-simulation communication will occur every 10 steps.
Center of mass motion removal mode is Linear
We have the following groups for center of mass motion removal:
  0:  rest

There are: 6496 Atoms
Atom distribution over 2 domains: av 3248 stddev 66 min 3182 max 3314

NOTE: DLB will not turn on during the first phase of PME tuning

Constraining the starting coordinates (step 0)

Constraining the coordinates at t0-dt (step 0)
RMS relative constraint deviation after constraining: 4.85e-07
Initial temperature: 299.991 K

Started mdrun on rank 0 Fri Jan 26 16:45:41 2018
           Step           Time
              0        0.00000

   Energies (kJ/mol)
           Bond          Angle    Proper Dih.  Improper Dih.          LJ-14
    2.44553e+00    2.30580e+00    4.46204e+01    2.06760e+00    1.60445e+01
     Coulomb-14        LJ (SR)  Disper. corr.   Coulomb (SR)   Coul. recip.
    2.12429e+02    1.42161e+04   -5.76160e+02   -1.13489e+05    3.63647e+02
      Potential    Kinetic En.   Total Energy    Temperature Pres. DC (bar)
   -9.92057e+04    1.62179e+04   -8.29878e+04    3.00111e+02   -1.49622e+02
   -3.35009e+03    5.98030e-07

	<====  A V E R A G E S  ====>

	Statistics over 20001 steps using 201 frames

   Energies (kJ/mol)
           Bond          Angle    Proper Dih.  Improper Dih.          LJ-14
    1.38587e+01    3.75695e+01    4.66774e+01    2.97045e+00    1.31716e+01
     Coulomb-14        LJ (SR)  Disper. corr.   Coulomb (SR)   Coul. recip.
    1.94511e+02    1.35510e+04   -5.62259e+02   -1.00300e+05    1.85032e+02
      Potential    Kinetic En.   Total Energy    Temperature Pres. DC (bar)
   -8.68175e+04    1.60781e+04   -7.07394e+04    2.97523e+02   -1.42499e+02
 Pressure (bar)   Constr. rmsd
   -1.01433e+01    0.00000e+00

          Box-X          Box-Y          Box-Z
    4.03269e+00    4.03269e+00    4.03269e+00

   Total Virial (kJ/mol)
    5.35033e+03   -2.89623e+01   -6.59033e+01
   -2.88440e+01    5.41724e+03   -3.36976e+01
   -6.60677e+01   -3.39678e+01    5.36897e+03

   Pressure (bar)
    9.17346e+00    2.16668e+01    3.16902e+01
    2.16073e+01   -3.61630e+01    1.67716e+01
    3.17736e+01    1.69087e+01   -3.44036e+00
